V1 n0 n3 SINE(2 1 3)
R1 n1 n2 5
R2 n0 n2 10
R3 n2 n3 5
R4 n0 n3 10
I1 n0 n1 3
.tran 0 15 0 1
.end
