V1 N003 0 SINE(2 1 1000)
R1 N001 N003 1
C1 N001 0 1
I1 0 NOO4 0.1
L1 N002 N001 1
R2 N002 N001 1
.tran 0 10 0 1
.end
