V1 N003 0 SINE(2 1 1000)
R1 N001 N003 1K
C1 N001 0 1u
I1 0 NOO4 0.1
L1 N002 N001 1m
R2 N002 N001 1Meg
Q1 N003 N001 0 NPN
.tran 0 10ms 0 1us
.end