L1 n002 0 10m
R1 n002 n001 500
V1 n001 0 SINE(0 10 6)
.tran 0 0.1 0 0.001
.end