V1 n001 0 SINE(7 4 9)
R1 n001 0 5
R2 n002 n001 7
R3 n002 0 9
.tran 0 1 0 0.01
.end