V1 n001 0 SINE(0 2 4)
R1 n002 n001 1000
C1 n002 0 0.000001
R2 n002 0 11
.tran 0 0.0001 0 0.000001
.end