R3 N002 N001 4
R2 N002 0 2
I1 0 N003 SINE(1 4 2)
V1 N001 0 SINE(4 40 3)
R1 N003 N002 6
.tran 0 1 0 0.01
.end