R1 N001 0 100
R3 N002 N001 10000
I1 0 N001 SINE(0 3 2)
D1 N002 0
.tran 0 10m 0 1m
.end