L1 n001 0 100m
V1 n001 0 10
R1 n001 0 8k
.tran 0 0.1 0 0.001
.end
