V1 n001 0 SINE(5 3 15)
R1 n002 n001 1000
C1 n002 0 0.000001
R2 n002 0 8
.tran 0 0.01 0 0.0000001
.end